/*--------------------------------*- C++ -*----------------------------------*\
| =========                 |                                                 |
| \\      /  F ield         | OpenFOAM: The Open Source CFD Toolbox           |
|  \\    /   O peration     | Version:  2.1.x                                 |
|   \\  /    A nd           | Web:      www.OpenFOAM.org                      |
|    \\/     M anipulation  |                                                 |
\*---------------------------------------------------------------------------*/
FoamFile
{
    version     2.0;
    format      ascii;
    class       dictionary;
    object      changeDictionaryDict;
}
// * * * * * * * * * * * * * * * * * * * * * * * * * * * * * * * * * * * * * //

dictionaryReplacement
{
    boundary
    {
		wall_empty
		{
		   type             empty;
		}
    }

    phi_p
    {
		internalField	uniform 0.;

		boundaryField
		{
			wall_empty
			{
				type	empty;
			}
			"block_c_to_block_l"
			{
				type			FCAPOLLO::interiorMixedScalarTensor;
				transportCoeff	sigma_p_eff;
			}
			"block_c_to_block_r"
			{
				type			FCAPOLLO::interiorMixedScalarTensor;
				transportCoeff	sigma_p_eff;
			}
		}
	}
}

// ************************************************************************* //
