/*--------------------------------*- C++ -*----------------------------------*\
| =========                 |                                                 |
| \\      /  F ield         | OpenFOAM: The Open Source CFD Toolbox           |
|  \\    /   O peration     | Version:  2.1.x                                 |
|   \\  /    A nd           | Web:      www.OpenFOAM.org                      |
|    \\/     M anipulation  |                                                 |
\*---------------------------------------------------------------------------*/
FoamFile
{
    version     2.0;
    format      ascii;
    class       dictionary;
    object      changeDictionaryDict;
}
// * * * * * * * * * * * * * * * * * * * * * * * * * * * * * * * * * * * * * //

dictionaryReplacement
{
    boundary
    {
        wall_l 
        {
            type            patch;
        }
		wall_empty
		{
	   		type		    empty;
		}
    }

    phi_e
    {
        internalField   uniform 0.;

        boundaryField
        {
            wall_l
            {
                type            fixedValue;
				value			uniform 0.;
            }
	    	wall_empty
	    	{
  				type			empty;
	    	}
	    	"block_l_to_block_c"
	    	{
				type			zeroGradient;
	    	}
        }
    }


    phi_p
    {
        internalField   uniform 0.;

        boundaryField
        {
            wall_l
            {
				type			zeroGradient;
//				type			mixed;
//				refValue		uniform 0.0;
//				refGradient		uniform 0.0;
//				valueFraction	uniform 0.001;
            }
	    	wall_empty
	    	{
  				type			empty;
	    	}
	    	"block_l_to_block_c"
	    	{
				type			FCAPOLLO::interiorMixedScalarTensor;
				transportCoeff	sigma_p_eff;
	    	}
        }
    }
}

// ************************************************************************* //
