/*--------------------------------*- C++ -*----------------------------------*\
| =========                 |                                                 |
| \\      /  F ield         | OpenFOAM: The Open Source CFD Toolbox           |
|  \\    /   O peration     | Version:  2.1.x                                 |
|   \\  /    A nd           | Web:      www.OpenFOAM.org                      |
|    \\/     M anipulation  |                                                 |
\*---------------------------------------------------------------------------*/
FoamFile
{
    version     2.0;
    format      ascii;
    class       dictionary;
    location    "system";
    object      fvSolution;
}
// * * * * * * * * * * * * * * * * * * * * * * * * * * * * * * * * * * * * * //

solvers
{
    phi_e
    {
		solver			PCG;
		preconditioner	DIC;
        tolerance       1e-150;
        relTol          0;
		maxIter			1;
    }
	phi_p
    {
		solver			PCG;
		preconditioner	DIC;
        tolerance       1e-150;
        relTol          0;
		maxIter			1;
    }
}

SIMPLE
{
    nNonOrthogonalCorrectors 0;
}

relaxationFactors
{
	fields
	{
//		source_electron_total 	1.e-1;
//		source_proton_total 	1.e-1;
		phi_e					.99;
		phi_p					.99;
	}
	equations
	{
		phi_p				0.9;
//		phi_e				0.9;
	}
}


// ************************************************************************* //
