/*--------------------------------*- C++ -*----------------------------------*\
| =========                 |                                                 |
| \\      /  F ield         | OpenFOAM: The Open Source CFD Toolbox           |
|  \\    /   O peration     | Version:  2.1.x                                 |
|   \\  /    A nd           | Web:      www.OpenFOAM.org                      |
|    \\/     M anipulation  |                                                 |
\*---------------------------------------------------------------------------*/
FoamFile
{
    version     2.0;
    format      ascii;
    class       dictionary;
    location    "constant";
    object      transportProperties;
}
// * * * * * * * * * * * * * * * * * * * * * * * * * * * * * * * * * * * * * //

maxSweep		 	50000;
writeInterval		1;
//solverMethod		explicit;
solverMethod		implicit;
//equationSystem	separate;
equationSystem		together;
implicitFactor		50.;
protonSweep		 	1;
electronSweep    	1;
THV					-1;  				// 1 uses THV, -1 uses BV 
currentTolerance 	1.e-5;
etaBlockl		 	0.015;
etaBlockr			-0.45;

// ************************************************************************* //
